  Page 1                                    Tue Nov 06 23:37:05 2018

  ******************************************************************
  *                           E P A N E T                          *
  *                   Hydraulic and Water Quality                  *
  *                   Analysis for Pipe Networks                   *
  *                         Version 2.00.12                        *
  ******************************************************************
  
  ANYTOWN example 
   
      Input Data File ................... ..\materials\anytown_copy1.inp
      Number of Junctions................ 22
      Number of Reservoirs............... 1
      Number of Tanks ................... 2
      Number of Pipes ................... 43
      Number of Pumps ................... 3
      Number of Valves .................. 0
      Headloss Formula .................. Hazen-Williams
      Hydraulic Timestep ................ 1.00 min
      Hydraulic Accuracy ................ 0.001000
      Status Check Frequency ............ 2
      Maximum Trials Checked ............ 10
      Damping Limit Threshold ........... 0.000000
      Maximum Trials .................... 200
      Quality Analysis .................. None
      Specific Gravity .................. 1.00
      Relative Kinematic Viscosity ...... 1.00
      Relative Chemical Diffusivity ..... 1.00
      Demand Multiplier ................. 1.00
      Total Duration .................... 1440.00 min
      Reporting Criteria:
         No Nodes
         No Links
   
  Analysis begun Tue Nov 06 23:37:05 2018

  Analysis ended Tue Nov 06 23:37:20 2018
