  Page 1                                    Thu May 24 10:24:26 2018

  ******************************************************************
  *                           E P A N E T                          *
  *                   Hydraulic and Water Quality                  *
  *                   Analysis for Pipe Networks                   *
  *                         Version 2.00.12                        *
  ******************************************************************
  
  Analysis begun Thu May 24 10:24:26 2018

  Analysis ended Thu May 24 10:24:26 2018
